14
ansgtrom
H   0.00000000   0.00000000   1.48239011
Si  0.00000000   0.00000000   0.00000000
Si  2.21678838   0.00000000  -0.78375305
Si  2.21678838   0.00000000  -3.13501219
Si  1.10839419  -1.91979505  -3.91876524
Si  1.10839419  -1.91979505  -6.27002438
Si  0.00000000   0.00000000  -7.05377742
Si  0.00000000   0.00000000  -9.40503656
Si -1.10839419   1.91979505  -10.18878961
Si -1.10839419   1.91979505  -12.54004875
Si -2.21678838   0.00000000  -13.3238018 
Si -2.21678838   0.00000000  -15.67506094
Si  0.00000000   0.00000000  -16.45881399
H   0.00000000   0.00000000  -17.94120409